*SPEF "ieee 1481-1999"
*DESIGN "tiny_user_project"
*DATE "11:11:11 Fri 11 11, 1111"
*VENDOR "OpenRCX"
*PROGRAM "Parallel Extraction"
*VERSION "1.0"
*DESIGN_FLOW "NAME_SCOPE LOCAL" "PIN_CAP NONE"
*DIVIDER /
*DELIMITER :
*BUS_DELIMITER []
*T_UNIT 1 NS
*C_UNIT 1 PF
*R_UNIT 1 OHM
*L_UNIT 1 HENRY

*NAME_MAP
*1 io_in[0]
*2 io_in[10]
*3 io_in[11]
*4 io_in[12]
*5 io_in[13]
*6 io_in[14]
*7 io_in[15]
*8 io_in[16]
*9 io_in[17]
*10 io_in[18]
*11 io_in[19]
*12 io_in[1]
*13 io_in[20]
*14 io_in[21]
*15 io_in[22]
*16 io_in[23]
*17 io_in[24]
*18 io_in[25]
*19 io_in[26]
*20 io_in[27]
*21 io_in[28]
*22 io_in[29]
*23 io_in[2]
*24 io_in[30]
*25 io_in[31]
*26 io_in[32]
*27 io_in[33]
*28 io_in[34]
*29 io_in[35]
*30 io_in[36]
*31 io_in[37]
*32 io_in[3]
*33 io_in[4]
*34 io_in[5]
*35 io_in[6]
*36 io_in[7]
*37 io_in[8]
*38 io_in[9]
*39 net119
*40 net129
*41 net130
*42 net131
*43 net132
*44 net133
*45 net134
*46 net135
*47 net136
*48 net137
*49 net138
*50 net120
*51 net139
*52 net140
*53 net141
*54 net142
*55 net143
*56 net144
*57 net145
*58 net146
*59 net147
*60 net148
*61 net121
*62 net149
*63 net150
*64 net151
*65 net152
*66 net153
*67 net154
*68 net155
*69 net156
*70 net122
*71 net123
*72 net124
*73 net125
*74 net126
*75 net127
*76 net128
*77 net93
*78 net103
*79 net104
*80 net105
*81 net106
*82 net107
*83 net108
*84 net109
*85 net110
*86 net111
*87 net112
*88 net94
*89 net113
*90 net114
*91 net115
*92 net116
*93 io_out[24]
*94 io_out[25]
*95 io_out[26]
*96 io_out[27]
*97 io_out[28]
*98 io_out[29]
*99 net95
*100 io_out[30]
*101 io_out[31]
*102 io_out[32]
*103 io_out[33]
*104 io_out[34]
*105 io_out[35]
*106 net117
*107 net118
*108 net96
*109 net97
*110 net98
*111 net99
*112 net100
*113 net101
*114 net102
*115 la_data_in[0]
*116 la_data_in[10]
*117 la_data_in[11]
*118 la_data_in[12]
*119 la_data_in[13]
*120 la_data_in[14]
*121 la_data_in[15]
*122 la_data_in[16]
*123 la_data_in[17]
*124 la_data_in[18]
*125 la_data_in[19]
*126 la_data_in[1]
*127 la_data_in[20]
*128 la_data_in[21]
*129 la_data_in[22]
*130 la_data_in[23]
*131 la_data_in[24]
*132 la_data_in[25]
*133 la_data_in[26]
*134 la_data_in[27]
*135 la_data_in[28]
*136 la_data_in[29]
*137 la_data_in[2]
*138 la_data_in[30]
*139 la_data_in[31]
*140 la_data_in[32]
*141 la_data_in[33]
*142 la_data_in[34]
*143 la_data_in[35]
*144 la_data_in[36]
*145 la_data_in[37]
*146 la_data_in[38]
*147 la_data_in[39]
*148 la_data_in[3]
*149 la_data_in[40]
*150 la_data_in[41]
*151 la_data_in[42]
*152 la_data_in[43]
*153 la_data_in[44]
*154 la_data_in[45]
*155 la_data_in[46]
*156 la_data_in[47]
*157 la_data_in[48]
*158 la_data_in[49]
*159 la_data_in[4]
*160 la_data_in[50]
*161 la_data_in[51]
*162 la_data_in[52]
*163 la_data_in[53]
*164 la_data_in[54]
*165 la_data_in[55]
*166 la_data_in[56]
*167 la_data_in[57]
*168 la_data_in[58]
*169 la_data_in[59]
*170 la_data_in[5]
*171 la_data_in[60]
*172 la_data_in[61]
*173 la_data_in[62]
*174 la_data_in[63]
*175 la_data_in[6]
*176 la_data_in[7]
*177 la_data_in[8]
*178 la_data_in[9]
*179 net29
*180 net39
*181 net40
*182 net41
*183 net42
*184 net43
*185 net44
*186 net45
*187 net46
*188 net47
*189 net48
*190 net30
*191 net49
*192 net50
*193 net51
*194 net52
*195 net53
*196 net54
*197 net55
*198 net56
*199 net57
*200 net58
*201 net31
*202 net59
*203 net60
*204 net61
*205 net62
*206 net63
*207 net64
*208 net65
*209 net66
*210 net67
*211 net68
*212 net32
*213 net69
*214 net70
*215 net71
*216 net72
*217 net73
*218 net74
*219 net75
*220 net76
*221 net77
*222 net78
*223 net33
*224 net79
*225 net80
*226 net81
*227 net82
*228 net83
*229 net84
*230 net85
*231 net86
*232 net87
*233 net88
*234 net34
*235 net89
*236 net90
*237 net91
*238 net92
*239 net35
*240 net36
*241 net37
*242 net38
*243 la_oenb[0]
*244 la_oenb[10]
*245 la_oenb[11]
*246 la_oenb[12]
*247 la_oenb[13]
*248 la_oenb[14]
*249 la_oenb[15]
*250 la_oenb[16]
*251 la_oenb[17]
*252 la_oenb[18]
*253 la_oenb[19]
*254 la_oenb[1]
*255 la_oenb[20]
*256 la_oenb[21]
*257 la_oenb[22]
*258 la_oenb[23]
*259 la_oenb[24]
*260 la_oenb[25]
*261 la_oenb[26]
*262 la_oenb[27]
*263 la_oenb[28]
*264 la_oenb[29]
*265 la_oenb[2]
*266 la_oenb[30]
*267 la_oenb[31]
*268 la_oenb[32]
*269 la_oenb[33]
*270 la_oenb[34]
*271 la_oenb[35]
*272 la_oenb[36]
*273 la_oenb[37]
*274 la_oenb[38]
*275 la_oenb[39]
*276 la_oenb[3]
*277 la_oenb[40]
*278 la_oenb[41]
*279 la_oenb[42]
*280 la_oenb[43]
*281 la_oenb[44]
*282 la_oenb[45]
*283 la_oenb[46]
*284 la_oenb[47]
*285 la_oenb[48]
*286 la_oenb[49]
*287 la_oenb[4]
*288 la_oenb[50]
*289 la_oenb[51]
*290 la_oenb[52]
*291 la_oenb[53]
*292 la_oenb[54]
*293 la_oenb[55]
*294 la_oenb[56]
*295 la_oenb[57]
*296 la_oenb[58]
*297 la_oenb[59]
*298 la_oenb[5]
*299 la_oenb[60]
*300 la_oenb[61]
*301 la_oenb[62]
*302 la_oenb[63]
*303 la_oenb[6]
*304 la_oenb[7]
*305 la_oenb[8]
*306 la_oenb[9]
*307 user_clock2
*308 net157
*309 net158
*310 net159
*313 wb_clk_i
*314 wb_rst_i
*315 net160
*316 wbs_adr_i[0]
*317 wbs_adr_i[10]
*318 wbs_adr_i[11]
*319 wbs_adr_i[12]
*320 wbs_adr_i[13]
*321 wbs_adr_i[14]
*322 wbs_adr_i[15]
*323 wbs_adr_i[16]
*324 wbs_adr_i[17]
*325 wbs_adr_i[18]
*326 wbs_adr_i[19]
*327 wbs_adr_i[1]
*328 wbs_adr_i[20]
*329 wbs_adr_i[21]
*330 wbs_adr_i[22]
*331 wbs_adr_i[23]
*332 wbs_adr_i[24]
*333 wbs_adr_i[25]
*334 wbs_adr_i[26]
*335 wbs_adr_i[27]
*336 wbs_adr_i[28]
*337 wbs_adr_i[29]
*338 wbs_adr_i[2]
*339 wbs_adr_i[30]
*340 wbs_adr_i[31]
*341 wbs_adr_i[3]
*342 wbs_adr_i[4]
*343 wbs_adr_i[5]
*344 wbs_adr_i[6]
*345 wbs_adr_i[7]
*346 wbs_adr_i[8]
*347 wbs_adr_i[9]
*348 wbs_cyc_i
*349 wbs_dat_i[0]
*350 wbs_dat_i[10]
*351 wbs_dat_i[11]
*352 wbs_dat_i[12]
*353 wbs_dat_i[13]
*354 wbs_dat_i[14]
*355 wbs_dat_i[15]
*356 wbs_dat_i[16]
*357 wbs_dat_i[17]
*358 wbs_dat_i[18]
*359 wbs_dat_i[19]
*360 wbs_dat_i[1]
*361 wbs_dat_i[20]
*362 wbs_dat_i[21]
*363 wbs_dat_i[22]
*364 wbs_dat_i[23]
*365 wbs_dat_i[24]
*366 wbs_dat_i[25]
*367 wbs_dat_i[26]
*368 wbs_dat_i[27]
*369 wbs_dat_i[28]
*370 wbs_dat_i[29]
*371 wbs_dat_i[2]
*372 wbs_dat_i[30]
*373 wbs_dat_i[31]
*374 wbs_dat_i[3]
*375 wbs_dat_i[4]
*376 wbs_dat_i[5]
*377 wbs_dat_i[6]
*378 wbs_dat_i[7]
*379 wbs_dat_i[8]
*380 wbs_dat_i[9]
*381 net161
*382 net171
*383 net172
*384 net173
*385 net174
*386 net175
*387 net176
*388 net177
*389 net178
*390 net179
*391 net180
*392 net162
*393 net181
*394 net182
*395 net183
*396 net184
*397 net185
*398 net186
*399 net187
*400 net188
*401 net189
*402 net190
*403 net163
*404 net191
*405 net192
*406 net164
*407 net165
*408 net166
*409 net167
*410 net168
*411 net169
*412 net170
*413 wbs_sel_i[0]
*414 wbs_sel_i[1]
*415 wbs_sel_i[2]
*416 wbs_sel_i[3]
*417 wbs_stb_i
*418 wbs_we_i
*419 _000_
*420 _001_
*421 _002_
*422 _003_
*423 _004_
*424 _005_
*425 _006_
*426 _007_
*427 _008_
*428 _009_
*429 _010_
*430 _011_
*431 _012_
*432 _013_
*433 _014_
*434 _015_
*435 _016_
*436 _017_
*437 _018_
*438 _019_
*439 _020_
*440 _021_
*441 _022_
*442 _023_
*443 _024_
*444 _025_
*445 _026_
*446 _027_
*447 _028_
*448 _029_
*449 _030_
*450 _031_
*451 _032_
*452 _033_
*453 _034_
*454 _035_
*455 _036_
*456 _037_
*457 _038_
*458 _039_
*459 mod\.gate10\.b
*460 mod\.gate16\.b
*461 mod\.gate22\.b
*462 mod\.gate28\.b
*463 mod\.gate34\.b
*464 mod\.gate40\.b
*465 mod\.gate46\.b
*466 mod\.gate52\.b
*467 mod\.gate58\.b
*468 net1
*469 net10
*470 net11
*471 net12
*472 net13
*473 net14
*474 net15
*475 net16
*476 net17
*477 net18
*478 net19
*479 net2
*480 net20
*481 net21
*482 net22
*483 net23
*484 net24
*485 net25
*486 net26
*487 net27
*488 net28
*489 net3
*490 net4
*491 net5
*492 net6
*493 net7
*494 net8
*495 net9
*496 ANTENNA__040__I
*497 ANTENNA__041__I
*498 ANTENNA__042__I
*499 ANTENNA__044__A1
*500 ANTENNA__044__A2
*501 ANTENNA__045__A1
*502 ANTENNA__045__A2
*503 ANTENNA__045__B
*504 ANTENNA__047__A1
*505 ANTENNA__048__A1
*506 ANTENNA__048__B
*507 ANTENNA__051__A1
*508 ANTENNA__052__A1
*509 ANTENNA__052__B
*510 ANTENNA__054__A2
*511 ANTENNA__055__A2
*512 ANTENNA__056__A1
*513 ANTENNA__057__I
*514 ANTENNA__059__A2
*515 ANTENNA__060__A2
*516 ANTENNA__060__B
*517 ANTENNA__062__I
*518 ANTENNA__063__A1
*519 ANTENNA__064__B
*520 ANTENNA__067__A1
*521 ANTENNA__067__A2
*522 ANTENNA__068__A2
*523 ANTENNA__068__B
*524 ANTENNA__070__A1
*525 ANTENNA__070__A2
*526 ANTENNA__071__A1
*527 ANTENNA__071__A2
*528 ANTENNA__073__I
*529 ANTENNA__076__B
*530 ANTENNA__079__A1
*531 ANTENNA__079__A2
*532 ANTENNA__080__A2
*533 ANTENNA__080__B
*534 ANTENNA__082__A1
*535 ANTENNA__083__B
*536 ANTENNA__084__A1
*537 ANTENNA__091__A1
*538 ANTENNA__091__A2
*539 ANTENNA__092__A1
*540 ANTENNA__092__A2
*541 ANTENNA__094__A2
*542 ANTENNA__095__A2
*543 ANTENNA__263__I
*544 ANTENNA__264__I
*545 ANTENNA_input10_I
*546 ANTENNA_input11_I
*547 ANTENNA_input12_I
*548 ANTENNA_input13_I
*549 ANTENNA_input14_I
*550 ANTENNA_input15_I
*551 ANTENNA_input16_I
*552 ANTENNA_input1_I
*553 ANTENNA_input2_I
*554 ANTENNA_input3_I
*555 ANTENNA_input4_I
*556 ANTENNA_input5_I
*557 ANTENNA_input6_I
*558 ANTENNA_input7_I
*559 ANTENNA_input8_I
*560 ANTENNA_input9_I
*561 ANTENNA_output17_I
*562 ANTENNA_output18_I
*563 ANTENNA_output19_I
*564 ANTENNA_output20_I
*565 ANTENNA_output21_I
*566 ANTENNA_output22_I
*567 ANTENNA_output23_I
*568 ANTENNA_output24_I
*569 ANTENNA_output25_I
*570 ANTENNA_output26_I
*571 ANTENNA_output27_I
*572 ANTENNA_output28_I
*573 FILLER_0_1005
*574 FILLER_0_101
*575 FILLER_0_1013
*576 FILLER_0_1017
*577 FILLER_0_1025
*578 FILLER_0_1037
*579 FILLER_0_1039
*580 FILLER_0_1044
*581 FILLER_0_107
*582 FILLER_0_11
*583 FILLER_0_115
*584 FILLER_0_119
*585 FILLER_0_125
*586 FILLER_0_133
*587 FILLER_0_137
*588 FILLER_0_139
*589 FILLER_0_142
*590 FILLER_0_174
*591 FILLER_0_177
*592 FILLER_0_2
*593 FILLER_0_209
*594 FILLER_0_212
*595 FILLER_0_228
*596 FILLER_0_233
*597 FILLER_0_237
*598 FILLER_0_239
*599 FILLER_0_244
*600 FILLER_0_247
*601 FILLER_0_251
*602 FILLER_0_257
*603 FILLER_0_263
*604 FILLER_0_27
*605 FILLER_0_279
*606 FILLER_0_282
*607 FILLER_0_287
*608 FILLER_0_299
*609 FILLER_0_317
*610 FILLER_0_323
*611 FILLER_0_329
*612 FILLER_0_345
*613 FILLER_0_349
*614 FILLER_0_352
*615 FILLER_0_368
*616 FILLER_0_37
*617 FILLER_0_384
*618 FILLER_0_387
*619 FILLER_0_405
*620 FILLER_0_409
*621 FILLER_0_413
*622 FILLER_0_419
*623 FILLER_0_422
*624 FILLER_0_426
*625 FILLER_0_431
*626 FILLER_0_447
*627 FILLER_0_449
*628 FILLER_0_454
*629 FILLER_0_457
*630 FILLER_0_462
*631 FILLER_0_466
*632 FILLER_0_468
*633 FILLER_0_483
*634 FILLER_0_489
*635 FILLER_0_492
*636 FILLER_0_508
*637 FILLER_0_516
*638 FILLER_0_521
*639 FILLER_0_527
*640 FILLER_0_53
*641 FILLER_0_543
*642 FILLER_0_551
*643 FILLER_0_559
*644 FILLER_0_562
*645 FILLER_0_59
*646 FILLER_0_594
*647 FILLER_0_597
*648 FILLER_0_6
*649 FILLER_0_602
*650 FILLER_0_608
*651 FILLER_0_612
*652 FILLER_0_617
*653 FILLER_0_625
*654 FILLER_0_629
*655 FILLER_0_632
*656 FILLER_0_648
*657 FILLER_0_65
*658 FILLER_0_656
*659 FILLER_0_660
*660 FILLER_0_664
*661 FILLER_0_667
*662 FILLER_0_682
*663 FILLER_0_688
*664 FILLER_0_69
*665 FILLER_0_690
*666 FILLER_0_695
*667 FILLER_0_699
*668 FILLER_0_702
*669 FILLER_0_718
*670 FILLER_0_72
*671 FILLER_0_726
*672 FILLER_0_731
*673 FILLER_0_737
*674 FILLER_0_759
*675 FILLER_0_765
*676 FILLER_0_769
*677 FILLER_0_77
*678 FILLER_0_772
*679 FILLER_0_804
*680 FILLER_0_807
*681 FILLER_0_810
*682 FILLER_0_818
*683 FILLER_0_822
*684 FILLER_0_827
*685 FILLER_0_835
*686 FILLER_0_839
*687 FILLER_0_842
*688 FILLER_0_874
*689 FILLER_0_877
*690 FILLER_0_885
*691 FILLER_0_893
*692 FILLER_0_909
*693 FILLER_0_912
*694 FILLER_0_93
*695 FILLER_0_944
*696 FILLER_0_947
*697 FILLER_0_952
*698 FILLER_0_960
*699 FILLER_0_964
*700 FILLER_0_966
*701 FILLER_0_971
*702 FILLER_0_979
*703 FILLER_0_982
*704 FILLER_0_987
*705 FILLER_100_101
*706 FILLER_100_1024
*707 FILLER_100_1028
*708 FILLER_100_1031
*709 FILLER_100_1039
*710 FILLER_100_1043
*711 FILLER_100_105
*712 FILLER_100_108
*713 FILLER_100_172
*714 FILLER_100_176
*715 FILLER_100_179
*716 FILLER_100_2
*717 FILLER_100_243
*718 FILLER_100_247
*719 FILLER_100_250
*720 FILLER_100_314
*721 FILLER_100_318
*722 FILLER_100_321
*723 FILLER_100_34
*724 FILLER_100_37
*725 FILLER_100_385
*726 FILLER_100_389
*727 FILLER_100_392
*728 FILLER_100_456
*729 FILLER_100_460
*730 FILLER_100_463
*731 FILLER_100_527
*732 FILLER_100_531
*733 FILLER_100_534
*734 FILLER_100_598
*735 FILLER_100_602
*736 FILLER_100_605
*737 FILLER_100_669
*738 FILLER_100_673
*739 FILLER_100_676
*740 FILLER_100_740
*741 FILLER_100_744
*742 FILLER_100_747
*743 FILLER_100_811
*744 FILLER_100_815
*745 FILLER_100_818
*746 FILLER_100_882
*747 FILLER_100_886
*748 FILLER_100_889
*749 FILLER_100_953
*750 FILLER_100_957
*751 FILLER_100_960
*752 FILLER_101_1028
*753 FILLER_101_1036
*754 FILLER_101_1044
*755 FILLER_101_137
*756 FILLER_101_141
*757 FILLER_101_144
*758 FILLER_101_2
*759 FILLER_101_208
*760 FILLER_101_212
*761 FILLER_101_215
*762 FILLER_101_279
*763 FILLER_101_283
*764 FILLER_101_286
*765 FILLER_101_350
*766 FILLER_101_354
*767 FILLER_101_357
*768 FILLER_101_421
*769 FILLER_101_425
*770 FILLER_101_428
*771 FILLER_101_492
*772 FILLER_101_496
*773 FILLER_101_499
*774 FILLER_101_563
*775 FILLER_101_567
*776 FILLER_101_570
*777 FILLER_101_634
*778 FILLER_101_638
*779 FILLER_101_641
*780 FILLER_101_66
*781 FILLER_101_70
*782 FILLER_101_705
*783 FILLER_101_709
*784 FILLER_101_712
*785 FILLER_101_73
*786 FILLER_101_776
*787 FILLER_101_780
*788 FILLER_101_783
*789 FILLER_101_847
*790 FILLER_101_851
*791 FILLER_101_854
*792 FILLER_101_918
*793 FILLER_101_922
*794 FILLER_101_925
*795 FILLER_101_989
*796 FILLER_101_993
*797 FILLER_101_996
*798 FILLER_102_101
*799 FILLER_102_1024
*800 FILLER_102_1028
*801 FILLER_102_1031
*802 FILLER_102_1039
*803 FILLER_102_1043
*804 FILLER_102_105
*805 FILLER_102_108
*806 FILLER_102_13
*807 FILLER_102_172
*808 FILLER_102_176
*809 FILLER_102_179
*810 FILLER_102_2
*811 FILLER_102_243
*812 FILLER_102_247
*813 FILLER_102_250
*814 FILLER_102_29
*815 FILLER_102_314
*816 FILLER_102_318
*817 FILLER_102_321
*818 FILLER_102_33
*819 FILLER_102_37
*820 FILLER_102_385
*821 FILLER_102_389
*822 FILLER_102_392
*823 FILLER_102_456
*824 FILLER_102_460
*825 FILLER_102_463
*826 FILLER_102_527
*827 FILLER_102_531
*828 FILLER_102_534
*829 FILLER_102_598
*830 FILLER_102_602
*831 FILLER_102_605
*832 FILLER_102_669
*833 FILLER_102_673
*834 FILLER_102_676
*835 FILLER_102_7
*836 FILLER_102_740
*837 FILLER_102_744
*838 FILLER_102_747
*839 FILLER_102_811
*840 FILLER_102_815
*841 FILLER_102_818
*842 FILLER_102_882
*843 FILLER_102_886
*844 FILLER_102_889
*845 FILLER_102_953
*846 FILLER_102_957
*847 FILLER_102_960
*848 FILLER_103_1028
*849 FILLER_103_1036
*850 FILLER_103_1044
*851 FILLER_103_137
*852 FILLER_103_141
*853 FILLER_103_144
*854 FILLER_103_2
*855 FILLER_103_208
*856 FILLER_103_212
*857 FILLER_103_215
*858 FILLER_103_279
*859 FILLER_103_283
*860 FILLER_103_286
*861 FILLER_103_350
*862 FILLER_103_354
*863 FILLER_103_357
*864 FILLER_103_421
*865 FILLER_103_425
*866 FILLER_103_428
*867 FILLER_103_492
*868 FILLER_103_496
*869 FILLER_103_499
*870 FILLER_103_563
*871 FILLER_103_567
*872 FILLER_103_570
*873 FILLER_103_634
*874 FILLER_103_638
*875 FILLER_103_641
*876 FILLER_103_66
*877 FILLER_103_70
*878 FILLER_103_705
*879 FILLER_103_709
*880 FILLER_103_712
*881 FILLER_103_73
*882 FILLER_103_776
*883 FILLER_103_780
*884 FILLER_103_783
*885 FILLER_103_847
*886 FILLER_103_851
*887 FILLER_103_854
*888 FILLER_103_918
*889 FILLER_103_922
*890 FILLER_103_925
*891 FILLER_103_989
*892 FILLER_103_993
*893 FILLER_103_996
*894 FILLER_104_101
*895 FILLER_104_1024
*896 FILLER_104_1028
*897 FILLER_104_1031
*898 FILLER_104_1039
*899 FILLER_104_1043
*900 FILLER_104_105
*901 FILLER_104_108
*902 FILLER_104_172
*903 FILLER_104_176
*904 FILLER_104_179
*905 FILLER_104_2
*906 FILLER_104_23
*907 FILLER_104_243
*908 FILLER_104_247
*909 FILLER_104_250
*910 FILLER_104_31
*911 FILLER_104_314
*912 FILLER_104_318
*913 FILLER_104_321
*914 FILLER_104_37
*915 FILLER_104_385
*916 FILLER_104_389
*917 FILLER_104_392
*918 FILLER_104_456
*919 FILLER_104_460
*920 FILLER_104_463
*921 FILLER_104_527
*922 FILLER_104_531
*923 FILLER_104_534
*924 FILLER_104_598
*925 FILLER_104_602
*926 FILLER_104_605
*927 FILLER_104_669
*928 FILLER_104_673
*929 FILLER_104_676
*930 FILLER_104_7
*931 FILLER_104_740
*932 FILLER_104_744
*933 FILLER_104_747
*934 FILLER_104_811
*935 FILLER_104_815
*936 FILLER_104_818
*937 FILLER_104_882
*938 FILLER_104_886
*939 FILLER_104_889
*940 FILLER_104_953
*941 FILLER_104_957
*942 FILLER_104_960
*943 FILLER_105_1028
*944 FILLER_105_1044
*945 FILLER_105_137
*946 FILLER_105_141
*947 FILLER_105_144
*948 FILLER_105_2
*949 FILLER_105_208
*950 FILLER_105_212
*951 FILLER_105_215
*952 FILLER_105_279
*953 FILLER_105_283
*954 FILLER_105_286
*955 FILLER_105_350
*956 FILLER_105_354
*957 FILLER_105_357
*958 FILLER_105_421
*959 FILLER_105_425
*960 FILLER_105_428
*961 FILLER_105_492
*962 FILLER_105_496
*963 FILLER_105_499
*964 FILLER_105_563
*965 FILLER_105_567
*966 FILLER_105_570
*967 FILLER_105_634
*968 FILLER_105_638
*969 FILLER_105_641
*970 FILLER_105_66
*971 FILLER_105_70
*972 FILLER_105_705
*973 FILLER_105_709
*974 FILLER_105_712
*975 FILLER_105_73
*976 FILLER_105_776
*977 FILLER_105_780
*978 FILLER_105_783
*979 FILLER_105_847
*980 FILLER_105_851
*981 FILLER_105_854
*982 FILLER_105_918
*983 FILLER_105_922
*984 FILLER_105_925
*985 FILLER_105_989
*986 FILLER_105_993
*987 FILLER_105_996
*988 FILLER_106_101
*989 FILLER_106_1024
*990 FILLER_106_1028
*991 FILLER_106_1031
*992 FILLER_106_1039
*993 FILLER_106_1043
*994 FILLER_106_105
*995 FILLER_106_108
*996 FILLER_106_172
*997 FILLER_106_176
*998 FILLER_106_179
*999 FILLER_106_2
*1000 FILLER_106_243
*1001 FILLER_106_247
*1002 FILLER_106_250
*1003 FILLER_106_314
*1004 FILLER_106_318
*1005 FILLER_106_321
*1006 FILLER_106_34
*1007 FILLER_106_37
*1008 FILLER_106_385
*1009 FILLER_106_389
*1010 FILLER_106_392
*1011 FILLER_106_456
*1012 FILLER_106_460
*1013 FILLER_106_463
*1014 FILLER_106_527
*1015 FILLER_106_531
*1016 FILLER_106_534
*1017 FILLER_106_598
*1018 FILLER_106_602
*1019 FILLER_106_605
*1020 FILLER_106_669
*1021 FILLER_106_673
*1022 FILLER_106_676
*1023 FILLER_106_740
*1024 FILLER_106_744
*1025 FILLER_106_747
*1026 FILLER_106_811
*1027 FILLER_106_815
*1028 FILLER_106_818
*1029 FILLER_106_882
*1030 FILLER_106_886
*1031 FILLER_106_889
*1032 FILLER_106_953
*1033 FILLER_106_957
*1034 FILLER_106_960
*1035 FILLER_107_1028
*1036 FILLER_107_1044
*1037 FILLER_107_137
*1038 FILLER_107_141
*1039 FILLER_107_144
*1040 FILLER_107_2
*1041 FILLER_107_208
*1042 FILLER_107_212
*1043 FILLER_107_215
*1044 FILLER_107_279
*1045 FILLER_107_283
*1046 FILLER_107_286
*1047 FILLER_107_350
*1048 FILLER_107_354
*1049 FILLER_107_357
*1050 FILLER_107_421
*1051 FILLER_107_425
*1052 FILLER_107_428
*1053 FILLER_107_492
*1054 FILLER_107_496
*1055 FILLER_107_499
*1056 FILLER_107_563
*1057 FILLER_107_567
*1058 FILLER_107_570
*1059 FILLER_107_634
*1060 FILLER_107_638
*1061 FILLER_107_641
*1062 FILLER_107_66
*1063 FILLER_107_70
*1064 FILLER_107_705
*1065 FILLER_107_709
*1066 FILLER_107_712
*1067 FILLER_107_73
*1068 FILLER_107_776
*1069 FILLER_107_780
*1070 FILLER_107_783
*1071 FILLER_107_847
*1072 FILLER_107_851
*1073 FILLER_107_854
*1074 FILLER_107_918
*1075 FILLER_107_922
*1076 FILLER_107_925
*1077 FILLER_107_989
*1078 FILLER_107_993
*1079 FILLER_107_996
*1080 FILLER_108_101
*1081 FILLER_108_1024
*1082 FILLER_108_1028
*1083 FILLER_108_1031
*1084 FILLER_108_1039
*1085 FILLER_108_1044
*1086 FILLER_108_105
*1087 FILLER_108_108
*1088 FILLER_108_172
*1089 FILLER_108_176
*1090 FILLER_108_179
*1091 FILLER_108_2
*1092 FILLER_108_243
*1093 FILLER_108_247
*1094 FILLER_108_250
*1095 FILLER_108_314
*1096 FILLER_108_318
*1097 FILLER_108_321
*1098 FILLER_108_34
*1099 FILLER_108_37
*1100 FILLER_108_385
*1101 FILLER_108_389
*1102 FILLER_108_392
*1103 FILLER_108_456
*1104 FILLER_108_460
*1105 FILLER_108_463
*1106 FILLER_108_527
*1107 FILLER_108_531
*1108 FILLER_108_534
*1109 FILLER_108_598
*1110 FILLER_108_602
*1111 FILLER_108_605
*1112 FILLER_108_669
*1113 FILLER_108_673
*1114 FILLER_108_676
*1115 FILLER_108_740
*1116 FILLER_108_744
*1117 FILLER_108_747
*1118 FILLER_108_811
*1119 FILLER_108_815
*1120 FILLER_108_818
*1121 FILLER_108_882
*1122 FILLER_108_886
*1123 FILLER_108_889
*1124 FILLER_108_953
*1125 FILLER_108_957
*1126 FILLER_108_960
*1127 FILLER_109_1028
*1128 FILLER_109_1044
*1129 FILLER_109_137
*1130 FILLER_109_141
*1131 FILLER_109_144
*1132 FILLER_109_2
*1133 FILLER_109_208
*1134 FILLER_109_212
*1135 FILLER_109_215
*1136 FILLER_109_279
*1137 FILLER_109_283
*1138 FILLER_109_286
*1139 FILLER_109_350
*1140 FILLER_109_354
*1141 FILLER_109_357
*1142 FILLER_109_421
*1143 FILLER_109_425
*1144 FILLER_109_428
*1145 FILLER_109_492
*1146 FILLER_109_496
*1147 FILLER_109_499
*1148 FILLER_109_563
*1149 FILLER_109_567
*1150 FILLER_109_570
*1151 FILLER_109_634
*1152 FILLER_109_638
*1153 FILLER_109_641
*1154 FILLER_109_66
*1155 FILLER_109_70
*1156 FILLER_109_705
*1157 FILLER_109_709
*1158 FILLER_109_712
*1159 FILLER_109_73
*1160 FILLER_109_776
*1161 FILLER_109_780
*1162 FILLER_109_783
*1163 FILLER_109_847
*1164 FILLER_109_851
*1165 FILLER_109_854
*1166 FILLER_109_918
*1167 FILLER_109_922
*1168 FILLER_109_925
*1169 FILLER_109_989
*1170 FILLER_109_993
*1171 FILLER_109_996
*1172 FILLER_10_101
*1173 FILLER_10_1024
*1174 FILLER_10_1028
*1175 FILLER_10_1031
*1176 FILLER_10_1039
*1177 FILLER_10_1043
*1178 FILLER_10_105
*1179 FILLER_10_108
*1180 FILLER_10_172
*1181 FILLER_10_176
*1182 FILLER_10_179
*1183 FILLER_10_2
*1184 FILLER_10_23
*1185 FILLER_10_243
*1186 FILLER_10_247
*1187 FILLER_10_250
*1188 FILLER_10_31
*1189 FILLER_10_314
*1190 FILLER_10_318
*1191 FILLER_10_321
*1192 FILLER_10_37
*1193 FILLER_10_385
*1194 FILLER_10_389
*1195 FILLER_10_392
*1196 FILLER_10_456
*1197 FILLER_10_460
*1198 FILLER_10_463
*1199 FILLER_10_527
*1200 FILLER_10_531
*1201 FILLER_10_534
*1202 FILLER_10_598
*1203 FILLER_10_602
*1204 FILLER_10_605
*1205 FILLER_10_669
*1206 FILLER_10_673
*1207 FILLER_10_676
*1208 FILLER_10_7
*1209 FILLER_10_740
*1210 FILLER_10_744
*1211 FILLER_10_747
*1212 FILLER_10_811
*1213 FILLER_10_815
*1214 FILLER_10_818
*1215 FILLER_10_882
*1216 FILLER_10_886
*1217 FILLER_10_889
*1218 FILLER_10_953
*1219 FILLER_10_957
*1220 FILLER_10_960
*1221 FILLER_110_101
*1222 FILLER_110_1024
*1223 FILLER_110_1028
*1224 FILLER_110_1031
*1225 FILLER_110_1039
*1226 FILLER_110_1043
*1227 FILLER_110_105
*1228 FILLER_110_108
*1229 FILLER_110_172
*1230 FILLER_110_176
*1231 FILLER_110_179
*1232 FILLER_110_2
*1233 FILLER_110_21
*1234 FILLER_110_243
*1235 FILLER_110_247
*1236 FILLER_110_250
*1237 FILLER_110_29
*1238 FILLER_110_314
*1239 FILLER_110_318
*1240 FILLER_110_321
*1241 FILLER_110_33
*1242 FILLER_110_37
*1243 FILLER_110_385
*1244 FILLER_110_389
*1245 FILLER_110_392
*1246 FILLER_110_456
*1247 FILLER_110_460
*1248 FILLER_110_463
*1249 FILLER_110_5
*1250 FILLER_110_527
*1251 FILLER_110_531
*1252 FILLER_110_534
*1253 FILLER_110_598
*1254 FILLER_110_602
*1255 FILLER_110_605
*1256 FILLER_110_669
*1257 FILLER_110_673
*1258 FILLER_110_676
*1259 FILLER_110_740
*1260 FILLER_110_744
*1261 FILLER_110_747
*1262 FILLER_110_811
*1263 FILLER_110_815
*1264 FILLER_110_818
*1265 FILLER_110_882
*1266 FILLER_110_886
*1267 FILLER_110_889
*1268 FILLER_110_953
*1269 FILLER_110_957
*1270 FILLER_110_960
*1271 FILLER_111_1028
*1272 FILLER_111_1044
*1273 FILLER_111_137
*1274 FILLER_111_141
*1275 FILLER_111_144
*1276 FILLER_111_2
*1277 FILLER_111_208
*1278 FILLER_111_212
*1279 FILLER_111_215
*1280 FILLER_111_279
*1281 FILLER_111_283
*1282 FILLER_111_286
*1283 FILLER_111_350
*1284 FILLER_111_354
*1285 FILLER_111_357
*1286 FILLER_111_37
*1287 FILLER_111_421
*1288 FILLER_111_425
*1289 FILLER_111_428
*1290 FILLER_111_492
*1291 FILLER_111_496
*1292 FILLER_111_499
*1293 FILLER_111_563
*1294 FILLER_111_567
*1295 FILLER_111_570
*1296 FILLER_111_634
*1297 FILLER_111_638
*1298 FILLER_111_641
*1299 FILLER_111_69
*1300 FILLER_111_705
*1301 FILLER_111_709
*1302 FILLER_111_712
*1303 FILLER_111_73
*1304 FILLER_111_776
*1305 FILLER_111_780
*1306 FILLER_111_783
*1307 FILLER_111_847
*1308 FILLER_111_851
*1309 FILLER_111_854
*1310 FILLER_111_918
*1311 FILLER_111_922
*1312 FILLER_111_925
*1313 FILLER_111_989
*1314 FILLER_111_993
*1315 FILLER_111_996
*1316 FILLER_112_101
*1317 FILLER_112_1024
*1318 FILLER_112_1028
*1319 FILLER_112_1031
*1320 FILLER_112_1039
*1321 FILLER_112_1044
*1322 FILLER_112_105
*1323 FILLER_112_108
*1324 FILLER_112_172
*1325 FILLER_112_176
*1326 FILLER_112_179
*1327 FILLER_112_2
*1328 FILLER_112_23
*1329 FILLER_112_243
*1330 FILLER_112_247
*1331 FILLER_112_250
*1332 FILLER_112_31
*1333 FILLER_112_314
*1334 FILLER_112_318
*1335 FILLER_112_321
*1336 FILLER_112_37
*1337 FILLER_112_385
*1338 FILLER_112_389
*1339 FILLER_112_392
*1340 FILLER_112_456
*1341 FILLER_112_460
*1342 FILLER_112_463
*1343 FILLER_112_527
*1344 FILLER_112_531
*1345 FILLER_112_534
*1346 FILLER_112_598
*1347 FILLER_112_602
*1348 FILLER_112_605
*1349 FILLER_112_669
*1350 FILLER_112_673
*1351 FILLER_112_676
*1352 FILLER_112_7
*1353 FILLER_112_740
*1354 FILLER_112_744
*1355 FILLER_112_747
*1356 FILLER_112_811
*1357 FILLER_112_815
*1358 FILLER_112_818
*1359 FILLER_112_882
*1360 FILLER_112_886
*1361 FILLER_112_889
*1362 FILLER_112_953
*1363 FILLER_112_957
*1364 FILLER_112_960
*1365 FILLER_113_1028
*1366 FILLER_113_1044
*1367 FILLER_113_137
*1368 FILLER_113_141
*1369 FILLER_113_144
*1370 FILLER_113_2
*1371 FILLER_113_208
*1372 FILLER_113_212
*1373 FILLER_113_215
*1374 FILLER_113_279
*1375 FILLER_113_283
*1376 FILLER_113_286
*1377 FILLER_113_350
*1378 FILLER_113_354
*1379 FILLER_113_357
*1380 FILLER_113_421
*1381 FILLER_113_425
*1382 FILLER_113_428
*1383 FILLER_113_492
*1384 FILLER_113_496
*1385 FILLER_113_499
*1386 FILLER_113_563
*1387 FILLER_113_567
*1388 FILLER_113_570
*1389 FILLER_113_634
*1390 FILLER_113_638
*1391 FILLER_113_641
*1392 FILLER_113_66
*1393 FILLER_113_70
*1394 FILLER_113_705
*1395 FILLER_113_709
*1396 FILLER_113_712
*1397 FILLER_113_73
*1398 FILLER_113_776
*1399 FILLER_113_780
*1400 FILLER_113_783
*1401 FILLER_113_847
*1402 FILLER_113_851
*1403 FILLER_113_854
*1404 FILLER_113_918
*1405 FILLER_113_922
*1406 FILLER_113_925
*1407 FILLER_113_989
*1408 FILLER_113_993
*1409 FILLER_113_996
*1410 FILLER_114_101
*1411 FILLER_114_1024
*1412 FILLER_114_1028
*1413 FILLER_114_1031
*1414 FILLER_114_1039
*1415 FILLER_114_1043
*1416 FILLER_114_105
*1417 FILLER_114_108
*1418 FILLER_114_172
*1419 FILLER_114_176
*1420 FILLER_114_179
*1421 FILLER_114_2
*1422 FILLER_114_23
*1423 FILLER_114_243
*1424 FILLER_114_247
*1425 FILLER_114_250
*1426 FILLER_114_31
*1427 FILLER_114_314
*1428 FILLER_114_318
*1429 FILLER_114_321
*1430 FILLER_114_37
*1431 FILLER_114_385
*1432 FILLER_114_389
*1433 FILLER_114_392
*1434 FILLER_114_456
*1435 FILLER_114_460
*1436 FILLER_114_463
*1437 FILLER_114_527
*1438 FILLER_114_531
*1439 FILLER_114_534
*1440 FILLER_114_598
*1441 FILLER_114_602
*1442 FILLER_114_605
*1443 FILLER_114_669
*1444 FILLER_114_673
*1445 FILLER_114_676
*1446 FILLER_114_7
*1447 FILLER_114_740
*1448 FILLER_114_744
*1449 FILLER_114_747
*1450 FILLER_114_811
*1451 FILLER_114_815
*1452 FILLER_114_818
*1453 FILLER_114_882
*1454 FILLER_114_886
*1455 FILLER_114_889
*1456 FILLER_114_953
*1457 FILLER_114_957
*1458 FILLER_114_960
*1459 FILLER_115_1028
*1460 FILLER_115_1044
*1461 FILLER_115_137
*1462 FILLER_115_141
*1463 FILLER_115_144
*1464 FILLER_115_2
*1465 FILLER_115_208
*1466 FILLER_115_212
*1467 FILLER_115_215
*1468 FILLER_115_279
*1469 FILLER_115_283
*1470 FILLER_115_286
*1471 FILLER_115_350
*1472 FILLER_115_354
*1473 FILLER_115_357
*1474 FILLER_115_421
*1475 FILLER_115_425
*1476 FILLER_115_428
*1477 FILLER_115_492
*1478 FILLER_115_496
*1479 FILLER_115_499
*1480 FILLER_115_563
*1481 FILLER_115_567
*1482 FILLER_115_570
*1483 FILLER_115_634
*1484 FILLER_115_638
*1485 FILLER_115_641
*1486 FILLER_115_66
*1487 FILLER_115_70
*1488 FILLER_115_705
*1489 FILLER_115_709
*1490 FILLER_115_712
*1491 FILLER_115_73
*1492 FILLER_115_776
*1493 FILLER_115_780
*1494 FILLER_115_783
*1495 FILLER_115_847
*1496 FILLER_115_851
*1497 FILLER_115_854
*1498 FILLER_115_918
*1499 FILLER_115_922
*1500 FILLER_115_925
*1501 FILLER_115_989
*1502 FILLER_115_993
*1503 FILLER_115_996
*1504 FILLER_116_101
*1505 FILLER_116_1024
*1506 FILLER_116_1028
*1507 FILLER_116_1031
*1508 FILLER_116_1039
*1509 FILLER_116_1043
*1510 FILLER_116_105
*1511 FILLER_116_108
*1512 FILLER_116_172
*1513 FILLER_116_176
*1514 FILLER_116_179
*1515 FILLER_116_2
*1516 FILLER_116_243
*1517 FILLER_116_247
*1518 FILLER_116_250
*1519 FILLER_116_314
*1520 FILLER_116_318
*1521 FILLER_116_321
*1522 FILLER_116_34
*1523 FILLER_116_37
*1524 FILLER_116_385
*1525 FILLER_116_389
*1526 FILLER_116_392
*1527 FILLER_116_456
*1528 FILLER_116_460
*1529 FILLER_116_463
*1530 FILLER_116_527
*1531 FILLER_116_531
*1532 FILLER_116_534
*1533 FILLER_116_598
*1534 FILLER_116_602
*1535 FILLER_116_605
*1536 FILLER_116_669
*1537 FILLER_116_673
*1538 FILLER_116_676
*1539 FILLER_116_740
*1540 FILLER_116_744
*1541 FILLER_116_747
*1542 FILLER_116_811
*1543 FILLER_116_815
*1544 FILLER_116_818
*1545 FILLER_116_882
*1546 FILLER_116_886
*1547 FILLER_116_889
*1548 FILLER_116_953
*1549 FILLER_116_957
*1550 FILLER_116_960
*1551 FILLER_117_1028
*1552 FILLER_117_1044
*1553 FILLER_117_137
*1554 FILLER_117_141
*1555 FILLER_117_144
*1556 FILLER_117_2
*1557 FILLER_117_208
*1558 FILLER_117_212
*1559 FILLER_117_215
*1560 FILLER_117_279
*1561 FILLER_117_283
*1562 FILLER_117_286
*1563 FILLER_117_350
*1564 FILLER_117_354
*1565 FILLER_117_357
*1566 FILLER_117_421
*1567 FILLER_117_425
*1568 FILLER_117_428
*1569 FILLER_117_492
*1570 FILLER_117_496
*1571 FILLER_117_499
*1572 FILLER_117_563
*1573 FILLER_117_567
*1574 FILLER_117_570
*1575 FILLER_117_634
*1576 FILLER_117_638
*1577 FILLER_117_641
*1578 FILLER_117_7
*1579 FILLER_117_705
*1580 FILLER_117_709
*1581 FILLER_117_712
*1582 FILLER_117_73
*1583 FILLER_117_776
*1584 FILLER_117_780
*1585 FILLER_117_783
*1586 FILLER_117_847
*1587 FILLER_117_851
*1588 FILLER_117_854
*1589 FILLER_117_918
*1590 FILLER_117_922
*1591 FILLER_117_925
*1592 FILLER_117_989
*1593 FILLER_117_993
*1594 FILLER_117_996
*1595 FILLER_118_101
*1596 FILLER_118_1024
*1597 FILLER_118_1028
*1598 FILLER_118_1031
*1599 FILLER_118_1039
*1600 FILLER_118_1044