*SPEF "ieee 1481-1999"
*DESIGN "user_project_wrapper"
*DATE "11:11:11 Fri 11 11, 1111"
*VENDOR "OpenRCX"
*PROGRAM "Parallel Extraction"
*VERSION "1.0"
*DESIGN_FLOW "NAME_SCOPE LOCAL" "PIN_CAP NONE"
*DIVIDER /
*DELIMITER :
*BUS_DELIMITER []
*T_UNIT 1 NS
*C_UNIT 1 PF
*R_UNIT 1 OHM
*L_UNIT 1 HENRY

*NAME_MAP
*1 io_in[0]
*2 io_in[10]
*3 io_in[11]
*4 io_in[12]
*5 io_in[13]
*6 io_in[14]
*7 io_in[15]
*8 io_in[16]
*9 io_in[17]
*10 io_in[18]
*11 io_in[19]
*12 io_in[1]
*13 io_in[20]
*14 io_in[21]
*15 io_in[22]
*16 io_in[23]
*17 io_in[24]
*18 io_in[25]
*19 io_in[26]
*20 io_in[27]
*21 io_in[28]
*22 io_in[29]
*23 io_in[2]
*24 io_in[30]
*25 io_in[31]
*26 io_in[32]
*27 io_in[33]
*28 io_in[34]
*29 io_in[35]
*30 io_in[36]
*31 io_in[37]
*32 io_in[3]
*33 io_in[4]
*34 io_in[5]
*35 io_in[6]
*36 io_in[7]
*37 io_in[8]
*38 io_in[9]
*39 io_oeb[0]
*40 io_oeb[10]
*41 io_oeb[11]
*42 io_oeb[12]
*43 io_oeb[13]
*44 io_oeb[14]
*45 io_oeb[15]
*46 io_oeb[16]
*47 io_oeb[17]
*48 io_oeb[18]
*49 io_oeb[19]
*50 io_oeb[1]
*51 io_oeb[20]
*52 io_oeb[21]
*53 io_oeb[22]
*54 io_oeb[23]
*55 io_oeb[24]
*56 io_oeb[25]
*57 io_oeb[26]
*58 io_oeb[27]
*59 io_oeb[28]
*60 io_oeb[29]
*61 io_oeb[2]
*62 io_oeb[30]
*63 io_oeb[31]
*64 io_oeb[32]
*65 io_oeb[33]
*66 io_oeb[34]
*67 io_oeb[35]
*68 io_oeb[36]
*69 io_oeb[37]
*70 io_oeb[3]
*71 io_oeb[4]
*72 io_oeb[5]
*73 io_oeb[6]
*74 io_oeb[7]
*75 io_oeb[8]
*76 io_oeb[9]
*77 io_out[0]
*78 io_out[10]
*79 io_out[11]
*80 io_out[12]
*81 io_out[13]
*82 io_out[14]
*83 io_out[15]
*84 io_out[16]
*85 io_out[17]
*86 io_out[18]
*87 io_out[19]
*88 io_out[1]
*89 io_out[20]
*90 io_out[21]
*91 io_out[22]
*92 io_out[23]
*93 io_out[24]
*94 io_out[25]
*95 io_out[26]
*96 io_out[27]
*97 io_out[28]
*98 io_out[29]
*99 io_out[2]
*100 io_out[30]
*101 io_out[31]
*102 io_out[32]
*103 io_out[33]
*104 io_out[34]
*105 io_out[35]
*106 io_out[36]
*107 io_out[37]
*108 io_out[3]
*109 io_out[4]
*110 io_out[5]
*111 io_out[6]
*112 io_out[7]
*113 io_out[8]
*114 io_out[9]
*115 la_data_in[0]
*116 la_data_in[10]
*117 la_data_in[11]
*118 la_data_in[12]
*119 la_data_in[13]
*120 la_data_in[14]
*121 la_data_in[15]
*122 la_data_in[16]
*123 la_data_in[17]
*124 la_data_in[18]
*125 la_data_in[19]
*126 la_data_in[1]
*127 la_data_in[20]
*128 la_data_in[21]
*129 la_data_in[22]
*130 la_data_in[23]
*131 la_data_in[24]
*132 la_data_in[25]
*133 la_data_in[26]
*134 la_data_in[27]
*135 la_data_in[28]
*136 la_data_in[29]
*137 la_data_in[2]
*138 la_data_in[30]
*139 la_data_in[31]
*140 la_data_in[32]
*141 la_data_in[33]
*142 la_data_in[34]
*143 la_data_in[35]
*144 la_data_in[36]
*145 la_data_in[37]
*146 la_data_in[38]
*147 la_data_in[39]
*148 la_data_in[3]
*149 la_data_in[40]
*150 la_data_in[41]
*151 la_data_in[42]
*152 la_data_in[43]
*153 la_data_in[44]
*154 la_data_in[45]
*155 la_data_in[46]
*156 la_data_in[47]
*157 la_data_in[48]
*158 la_data_in[49]
*159 la_data_in[4]
*160 la_data_in[50]
*161 la_data_in[51]
*162 la_data_in[52]
*163 la_data_in[53]
*164 la_data_in[54]
*165 la_data_in[55]
*166 la_data_in[56]
*167 la_data_in[57]
*168 la_data_in[58]
*169 la_data_in[59]
*170 la_data_in[5]
*171 la_data_in[60]
*172 la_data_in[61]
*173 la_data_in[62]
*174 la_data_in[63]
*175 la_data_in[6]
*176 la_data_in[7]
*177 la_data_in[8]
*178 la_data_in[9]
*179 la_data_out[0]
*180 la_data_out[10]
*181 la_data_out[11]
*182 la_data_out[12]
*183 la_data_out[13]
*184 la_data_out[14]
*185 la_data_out[15]
*186 la_data_out[16]
*187 la_data_out[17]
*188 la_data_out[18]
*189 la_data_out[19]
*190 la_data_out[1]
*191 la_data_out[20]
*192 la_data_out[21]
*193 la_data_out[22]
*194 la_data_out[23]
*195 la_data_out[24]
*196 la_data_out[25]
*197 la_data_out[26]
*198 la_data_out[27]
*199 la_data_out[28]
*200 la_data_out[29]
*201 la_data_out[2]
*202 la_data_out[30]
*203 la_data_out[31]
*204 la_data_out[32]
*205 la_data_out[33]
*206 la_data_out[34]
*207 la_data_out[35]
*208 la_data_out[36]
*209 la_data_out[37]
*210 la_data_out[38]
*211 la_data_out[39]
*212 la_data_out[3]
*213 la_data_out[40]
*214 la_data_out[41]
*215 la_data_out[42]
*216 la_data_out[43]
*217 la_data_out[44]
*218 la_data_out[45]
*219 la_data_out[46]
*220 la_data_out[47]
*221 la_data_out[48]
*222 la_data_out[49]
*223 la_data_out[4]
*224 la_data_out[50]
*225 la_data_out[51]
*226 la_data_out[52]
*227 la_data_out[53]
*228 la_data_out[54]
*229 la_data_out[55]
*230 la_data_out[56]
*231 la_data_out[57]
*232 la_data_out[58]
*233 la_data_out[59]
*234 la_data_out[5]
*235 la_data_out[60]
*236 la_data_out[61]
*237 la_data_out[62]
*238 la_data_out[63]
*239 la_data_out[6]
*240 la_data_out[7]
*241 la_data_out[8]
*242 la_data_out[9]
*243 la_oenb[0]
*244 la_oenb[10]
*245 la_oenb[11]
*246 la_oenb[12]
*247 la_oenb[13]
*248 la_oenb[14]
*249 la_oenb[15]
*250 la_oenb[16]
*251 la_oenb[17]
*252 la_oenb[18]
*253 la_oenb[19]
*254 la_oenb[1]
*255 la_oenb[20]
*256 la_oenb[21]
*257 la_oenb[22]
*258 la_oenb[23]
*259 la_oenb[24]
*260 la_oenb[25]
*261 la_oenb[26]
*262 la_oenb[27]
*263 la_oenb[28]
*264 la_oenb[29]
*265 la_oenb[2]
*266 la_oenb[30]
*267 la_oenb[31]
*268 la_oenb[32]
*269 la_oenb[33]
*270 la_oenb[34]
*271 la_oenb[35]
*272 la_oenb[36]
*273 la_oenb[37]
*274 la_oenb[38]
*275 la_oenb[39]
*276 la_oenb[3]
*277 la_oenb[40]
*278 la_oenb[41]
*279 la_oenb[42]
*280 la_oenb[43]
*281 la_oenb[44]
*282 la_oenb[45]
*283 la_oenb[46]
*284 la_oenb[47]
*285 la_oenb[48]
*286 la_oenb[49]
*287 la_oenb[4]
*288 la_oenb[50]
*289 la_oenb[51]
*290 la_oenb[52]
*291 la_oenb[53]
*292 la_oenb[54]
*293 la_oenb[55]
*294 la_oenb[56]
*295 la_oenb[57]
*296 la_oenb[58]
*297 la_oenb[59]
*298 la_oenb[5]
*299 la_oenb[60]
*300 la_oenb[61]
*301 la_oenb[62]
*302 la_oenb[63]
*303 la_oenb[6]
*304 la_oenb[7]
*305 la_oenb[8]
*306 la_oenb[9]
*307 user_clock2
*308 user_irq[0]
*309 user_irq[1]
*310 user_irq[2]
*313 wb_clk_i
*314 wb_rst_i
*315 wbs_ack_o
*316 wbs_adr_i[0]
*317 wbs_adr_i[10]
*318 wbs_adr_i[11]
*319 wbs_adr_i[12]
*320 wbs_adr_i[13]
*321 wbs_adr_i[14]
*322 wbs_adr_i[15]
*323 wbs_adr_i[16]
*324 wbs_adr_i[17]
*325 wbs_adr_i[18]
*326 wbs_adr_i[19]
*327 wbs_adr_i[1]
*328 wbs_adr_i[20]
*329 wbs_adr_i[21]
*330 wbs_adr_i[22]
*331 wbs_adr_i[23]
*332 wbs_adr_i[24]
*333 wbs_adr_i[25]
*334 wbs_adr_i[26]
*335 wbs_adr_i[27]
*336 wbs_adr_i[28]
*337 wbs_adr_i[29]
*338 wbs_adr_i[2]
*339 wbs_adr_i[30]
*340 wbs_adr_i[31]
*341 wbs_adr_i[3]
*342 wbs_adr_i[4]
*343 wbs_adr_i[5]
*344 wbs_adr_i[6]
*345 wbs_adr_i[7]
*346 wbs_adr_i[8]
*347 wbs_adr_i[9]
*348 wbs_cyc_i
*349 wbs_dat_i[0]
*350 wbs_dat_i[10]
*351 wbs_dat_i[11]
*352 wbs_dat_i[12]
*353 wbs_dat_i[13]
*354 wbs_dat_i[14]
*355 wbs_dat_i[15]
*356 wbs_dat_i[16]
*357 wbs_dat_i[17]
*358 wbs_dat_i[18]
*359 wbs_dat_i[19]
*360 wbs_dat_i[1]
*361 wbs_dat_i[20]
*362 wbs_dat_i[21]
*363 wbs_dat_i[22]
*364 wbs_dat_i[23]
*365 wbs_dat_i[24]
*366 wbs_dat_i[25]
*367 wbs_dat_i[26]
*368 wbs_dat_i[27]
*369 wbs_dat_i[28]
*370 wbs_dat_i[29]
*371 wbs_dat_i[2]
*372 wbs_dat_i[30]
*373 wbs_dat_i[31]
*374 wbs_dat_i[3]
*375 wbs_dat_i[4]
*376 wbs_dat_i[5]
*377 wbs_dat_i[6]
*378 wbs_dat_i[7]
*379 wbs_dat_i[8]
*380 wbs_dat_i[9]
*381 wbs_dat_o[0]
*382 wbs_dat_o[10]
*383 wbs_dat_o[11]
*384 wbs_dat_o[12]
*385 wbs_dat_o[13]
*386 wbs_dat_o[14]
*387 wbs_dat_o[15]
*388 wbs_dat_o[16]
*389 wbs_dat_o[17]
*390 wbs_dat_o[18]
*391 wbs_dat_o[19]
*392 wbs_dat_o[1]
*393 wbs_dat_o[20]
*394 wbs_dat_o[21]
*395 wbs_dat_o[22]
*396 wbs_dat_o[23]
*397 wbs_dat_o[24]
*398 wbs_dat_o[25]
*399 wbs_dat_o[26]
*400 wbs_dat_o[27]
*401 wbs_dat_o[28]
*402 wbs_dat_o[29]
*403 wbs_dat_o[2]
*404 wbs_dat_o[30]
*405 wbs_dat_o[31]
*406 wbs_dat_o[3]
*407 wbs_dat_o[4]
*408 wbs_dat_o[5]
*409 wbs_dat_o[6]
*410 wbs_dat_o[7]
*411 wbs_dat_o[8]
*412 wbs_dat_o[9]
*413 wbs_sel_i[0]
*414 wbs_sel_i[1]
*415 wbs_sel_i[2]
*416 wbs_sel_i[3]
*417 wbs_stb_i
*418 wbs_we_i
*419 mprj

*PORTS
io_in[0] I
io_in[10] I
io_in[11] I
io_in[12] I
io_in[13] I
io_in[14] I
io_in[15] I
io_in[16] I
io_in[17] I
io_in[18] I
io_in[19] I
io_in[1] I
io_in[20] I
io_in[21] I
io_in[22] I
io_in[23] I
io_in[24] I
io_in[25] I
io_in[26] I
io_in[27] I
io_in[28] I
io_in[29] I
io_in[2] I
io_in[30] I
io_in[31] I
io_in[32] I
io_in[33] I
io_in[34] I
io_in[35] I
io_in[36] I
io_in[37] I
io_in[3] I
io_in[4] I
io_in[5] I
io_in[6] I
io_in[7] I
io_in[8] I
io_in[9] I
io_oeb[0] O
io_oeb[10] O
io_oeb[11] O
io_oeb[12] O
io_oeb[13] O
io_oeb[14] O
io_oeb[15] O
io_oeb[16] O
io_oeb[17] O
io_oeb[18] O
io_oeb[19] O
io_oeb[1] O
io_oeb[20] O
io_oeb[21] O
io_oeb[22] O
io_oeb[23] O
io_oeb[24] O
io_oeb[25] O
io_oeb[26] O
io_oeb[27] O
io_oeb[28] O
io_oeb[29] O
io_oeb[2] O
io_oeb[30] O
io_oeb[31] O
io_oeb[32] O
io_oeb[33] O
io_oeb[34] O
io_oeb[35] O
io_oeb[36] O
io_oeb[37] O
io_oeb[3] O
io_oeb[4] O
io_oeb[5] O
io_oeb[6] O
io_oeb[7] O
io_oeb[8] O
io_oeb[9] O
io_out[0] O
io_out[10] O
io_out[11] O
io_out[12] O
io_out[13] O
io_out[14] O
io_out[15] O
io_out[16] O
io_out[17] O
io_out[18] O
io_out[19] O
io_out[1] O
io_out[20] O
io_out[21] O
io_out[22] O
io_out[23] O
io_out[24] O
io_out[25] O
io_out[26] O
io_out[27] O
io_out[28] O
io_out[29] O
io_out[2] O
io_out[30] O
io_out[31] O
io_out[32] O
io_out[33] O
io_out[34] O
io_out[35] O
io_out[36] O
io_out[37] O
io_out[3] O
io_out[4] O
io_out[5] O
io_out[6] O
io_out[7] O
io_out[8] O
io_out[9] O
la_data_in[0] I
la_data_in[10] I
la_data_in[11] I
la_data_in[12] I
la_data_in[13] I
la_data_in[14] I
la_data_in[15] I
la_data_in[16] I
la_data_in[17] I
la_data_in[18] I
la_data_in[19] I
la_data_in[1] I
la_data_in[20] I
la_data_in[21] I
la_data_in[22] I
la_data_in[23] I
la_data_in[24] I
la_data_in[25] I
la_data_in[26] I
la_data_in[27] I
la_data_in[28] I
la_data_in[29] I
la_data_in[2] I
la_data_in[30] I
la_data_in[31] I
la_data_in[32] I
la_data_in[33] I
la_data_in[34] I
la_data_in[35] I
la_data_in[36] I
la_data_in[37] I
la_data_in[38] I
la_data_in[39] I
la_data_in[3] I
la_data_in[40] I
la_data_in[41] I
la_data_in[42] I
la_data_in[43] I
la_data_in[44] I
la_data_in[45] I
la_data_in[46] I
la_data_in[47] I
la_data_in[48] I
la_data_in[49] I
la_data_in[4] I
la_data_in[50] I
la_data_in[51] I
la_data_in[52] I
la_data_in[53] I
la_data_in[54] I
la_data_in[55] I
la_data_in[56] I
la_data_in[57] I
la_data_in[58] I
la_data_in[59] I
la_data_in[5] I
la_data_in[60] I
la_data_in[61] I
la_data_in[62] I
la_data_in[63] I
la_data_in[6] I
la_data_in[7] I
la_data_in[8] I
la_data_in[9] I
la_data_out[0] O
la_data_out[10] O
la_data_out[11] O
la_data_out[12] O
la_data_out[13] O
la_data_out[14] O
la_data_out[15] O
la_data_out[16] O
la_data_out[17] O
la_data_out[18] O
la_data_out[19] O
la_data_out[1] O
la_data_out[20] O
la_data_out[21] O
la_data_out[22] O
la_data_out[23] O
la_data_out[24] O
la_data_out[25] O
la_data_out[26] O
la_data_out[27] O
la_data_out[28] O
la_data_out[29] O
la_data_out[2] O
la_data_out[30] O
la_data_out[31] O
la_data_out[32] O
la_data_out[33] O
la_data_out[34] O
la_data_out[35] O
la_data_out[36] O
la_data_out[37] O
la_data_out[38] O
la_data_out[39] O
la_data_out[3] O
la_data_out[40] O
la_data_out[41] O
la_data_out[42] O
la_data_out[43] O
la_data_out[44] O
la_data_out[45] O
la_data_out[46] O
la_data_out[47] O
la_data_out[48] O
la_data_out[49] O
la_data_out[4] O
la_data_out[50] O
la_data_out[51] O
la_data_out[52] O
la_data_out[53] O
la_data_out[54] O
la_data_out[55] O
la_data_out[56] O
la_data_out[57] O
la_data_out[58] O
la_data_out[59] O
la_data_out[5] O
la_data_out[60] O
la_data_out[61] O
la_data_out[62] O
la_data_out[63] O
la_data_out[6] O
la_data_out[7] O
la_data_out[8] O
la_data_out[9] O
la_oenb[0] I
la_oenb[10] I
la_oenb[11] I
la_oenb[12] I
la_oenb[13] I
la_oenb[14] I
la_oenb[15] I
la_oenb[16] I
la_oenb[17] I
la_oenb[18] I
la_oenb[19] I
la_oenb[1] I
la_oenb[20] I
la_oenb[21] I
la_oenb[22] I
la_oenb[23] I
la_oenb[24] I
la_oenb[25] I
la_oenb[26] I
la_oenb[27] I
la_oenb[28] I
la_oenb[29] I
la_oenb[2] I
la_oenb[30] I
la_oenb[31] I
la_oenb[32] I
la_oenb[33] I
la_oenb[34] I
la_oenb[35] I
la_oenb[36] I
la_oenb[37] I
la_oenb[38] I
la_oenb[39] I
la_oenb[3] I
la_oenb[40] I
la_oenb[41] I
la_oenb[42] I
la_oenb[43] I
la_oenb[44] I
la_oenb[45] I
la_oenb[46] I
la_oenb[47] I
la_oenb[48] I
la_oenb[49] I
la_oenb[4] I
la_oenb[50] I
la_oenb[51] I
la_oenb[52] I
la_oenb[53] I
la_oenb[54] I
la_oenb[55] I
la_oenb[56] I
la_oenb[57] I
la_oenb[58] I
la_oenb[59] I
la_oenb[5] I
la_oenb[60] I
la_oenb[61] I
la_oenb[62] I
la_oenb[63] I
la_oenb[6] I
la_oenb[7] I
la_oenb[8] I
la_oenb[9] I
user_clock2 I
user_irq[0] O
user_irq[1] O
user_irq[2] O
wb_clk_i I
wb_rst_i I
wbs_ack_o O
wbs_adr_i[0] I
wbs_adr_i[10] I
wbs_adr_i[11] I
wbs_adr_i[12] I
wbs_adr_i[13] I
wbs_adr_i[14] I
wbs_adr_i[15] I
wbs_adr_i[16] I
wbs_adr_i[17] I
wbs_adr_i[18] I
wbs_adr_i[19] I
wbs_adr_i[1] I
wbs_adr_i[20] I
wbs_adr_i[21] I
wbs_adr_i[22] I
wbs_adr_i[23] I
wbs_adr_i[24] I
wbs_adr_i[25] I
wbs_adr_i[26] I
wbs_adr_i[27] I
wbs_adr_i[28] I
wbs_adr_i[29] I
wbs_adr_i[2] I
wbs_adr_i[30] I
wbs_adr_i[31] I
wbs_adr_i[3] I
wbs_adr_i[4] I
wbs_adr_i[5] I
wbs_adr_i[6] I
wbs_adr_i[7] I
wbs_adr_i[8] I
wbs_adr_i[9] I
wbs_cyc_i I
wbs_dat_i[0] I
wbs_dat_i[10] I
wbs_dat_i[11] I
wbs_dat_i[12] I
wbs_dat_i[13] I
wbs_dat_i[14] I
wbs_dat_i[15] I
wbs_dat_i[16] I
wbs_dat_i[17] I
wbs_dat_i[18] I
wbs_dat_i[19] I
wbs_dat_i[1] I
wbs_dat_i[20] I
wbs_dat_i[21] I
wbs_dat_i[22] I
wbs_dat_i[23] I
wbs_dat_i[24] I
wbs_dat_i[25] I
wbs_dat_i[26] I
wbs_dat_i[27] I
wbs_dat_i[28] I
wbs_dat_i[29] I
wbs_dat_i[2] I
wbs_dat_i[30] I
wbs_dat_i[31] I
wbs_dat_i[3] I
wbs_dat_i[4] I
wbs_dat_i[5] I
wbs_dat_i[6] I
wbs_dat_i[7] I
wbs_dat_i[8] I
wbs_dat_i[9] I
wbs_dat_o[0] O
wbs_dat_o[10] O
wbs_dat_o[11] O
wbs_dat_o[12] O
wbs_dat_o[13] O
wbs_dat_o[14] O
wbs_dat_o[15] O
wbs_dat_o[16] O
wbs_dat_o[17] O
wbs_dat_o[18] O
wbs_dat_o[19] O
wbs_dat_o[1] O
wbs_dat_o[20] O
wbs_dat_o[21] O
wbs_dat_o[22] O
wbs_dat_o[23] O
wbs_dat_o[24] O
wbs_dat_o[25] O
wbs_dat_o[26] O
wbs_dat_o[27] O
wbs_dat_o[28] O
wbs_dat_o[29] O
wbs_dat_o[2] O
wbs_dat_o[30] O
wbs_dat_o[31] O
wbs_dat_o[3] O
wbs_dat_o[4] O
wbs_dat_o[5] O
wbs_dat_o[6] O
wbs_dat_o[7] O
wbs_dat_o[8] O
wbs_dat_o[9] O
wbs_sel_i[0] I
wbs_sel_i[1] I
wbs_sel_i[2] I
wbs_sel_i[3] I
wbs_stb_i I
wbs_we_i I

*D_NET *1 0.564024
*CONN
*P io_in[0] I
*I *419:io_in[0] I *D tiny_user_project
*CAP
1 io_in[0] 0.00494834
2 *419:io_in[0] 0.00155431
3 *1:14 0.0120851
4 *1:13 0.0105308
5 *1:11 0.0623652
6 *1:10 0.0673135
7 *419:io_in[0] *419:io_in[27] 0
8 *419:io_in[0] *20:19 0.00225793
9 *1:11 *120:16 0.0386008
10 *1:11 *121:16 0.0504017
11 *1:14 *201:15 0
12 *1:14 *212:13 0.142438
13 *1:14 *292:11 0.171529
*RES
1 io_in[0] *1:10 47.475 
2 *1:10 *1:11 576.63 
3 *1:11 *1:13 4.5 
4 *1:13 *1:14 471.69 
5 *1:14 *419:io_in[0] 29.61 
*END

*D_NET *2 0.227973
*CONN
*P io_in[10] I
*I *419:io_in[10] I *D tiny_user_project
*CAP
1 io_in[10] 0.0047001
2 *419:io_in[10] 0.00105758
3 *2:12 0.00854809
4 *2:11 0.00749052
5 *2:9 0.0697276
6 *2:7 0.0744277
7 *419:io_in[10] *220:12 0.000691771
8 *2:12 *38:14 0.0312004
9 *2:12 *306:19 0.0301291
*RES
1 io_in[10] *2:7 37.305 
2 *2:7 *2:9 543.24 
3 *2:9 *2:11 4.5 
4 *2:11 *2:12 130.41 
5 *2:12 *419:io_in[10] 22.5 
*END

*D_NET *3 0.351787
*CONN
*P io_in[11] I
*I *419:io_in[11] I *D tiny_user_project
*CAP
1 io_in[11] 0.000363112
2 *419:io_in[11] 0.00169787
3 *3:16 0.0140934
4 *3:15 0.0123956
5 *3:13 0.0920689
6 *3:11 0.0924321
7 *419:io_in[11] *419:io_in[14] 6.67147e-05
8 *419:io_in[11] *103:12 0
9 *3:16 *43:13 0.103548
10 *3:16 *82:13 0.0322216
11 *3:16 *233:13 0.00289948
*RES
1 io_in[11] *3:11 3.195 
2 *3:11 *3:13 582.39 
3 *3:13 *3:15 4.5 
4 *3:15 *3:16 265.95 
5 *3:16 *419:io_in[11] 25.2 
*END

*D_NET *4 0.251914
*CONN
*P io_in[12] I
*I *419:io_in[12] I *D tiny_user_project
*CAP
1 io_in[12] 0.000167227
2 *419:io_in[12] 0.00245572
3 *4:16 0.0337808
4 *4:15 0.031325
5 *4:13 0.0752215
6 *4:11 0.0753887
7 *4:16 *70:13 0.0115486
8 *4:16 *120:19 0.0211197
9 *4:16 *359:19 0
10 *4:16 *378:13 0.000906232
*RES
1 io_in[12] *4:11 2.115 
2 *4:11 *4:13 587.79 
3 *4:13 *4:15 4.5 
4 *4:15 *4:16 278.01 
5 *4:16 *419:io_in[12] 30.42 
*END

*D_NET *5 0.326299
*CONN
*P io_in[13] I
*I *419:io_in[13] I *D tiny_user_project
*CAP
1 io_in[13] 0.0755202
2 *419:io_in[13] 0.00289899
3 *5:8 0.0365802
4 *5:7 0.0336812
5 *5:5 0.0755202
6 *419:io_in[13] *140:33 0
7 *5:8 *122:11 0.0546664
8 *5:8 *246:11 0.0474319
*RES
1 io_in[13] *5:5 590.445 
2 *5:5 *5:7 4.5 
3 *5:7 *5:8 383.49 
4 *5:8 *419:io_in[13] 33.84 
*END

*D_NET *6 0.328193
*CONN
*P io_in[14] I
*I *419:io_in[14] I *D tiny_user_project
*CAP
1 io_in[14] 0.000264341
2 *419:io_in[14] 0.00338226
3 *6:16 0.0513919
4 *6:15 0.0480097
5 *6:13 0.0757975
6 *6:11 0.0760619
7 *419:io_in[14] *419:la_data_in[42] 0.000110129
8 *419:io_in[14] *103:9 0.000154731
9 *6:16 *128:19 0.0338287
10 *6:16 *185:13 0.00325755
11 *6:16 *247:11 0.0358672
12 *419:io_in[11] *419:io_in[14] 6.67147e-05
*RES
1 io_in[14] *6:11 2.655 
2 *6:11 *6:13 593.19 
3 *6:13 *6:15 4.5 
4 *6:15 *6:16 459.09 
5 *6:16 *419:io_in[14] 38.25 
*END

*D_NET *7 0.268325
*CONN
*P io_in[15] I
*I *419:io_in[15] I *D tiny_user_project
*CAP
1 io_in[15] 0.0010289
2 *419:io_in[15] 0.001026
3 *7:11 0.0475508
4 *7:10 0.0465248
5 *7:8 0.0374603
6 *7:7 0.0384892
7 *419:io_in[15] *12:19 0.00110425
8 *419:io_in[15] *112:41 0.00111196
9 *419:io_in[15] *207:10 0.000115351
10 *419:io_in[15] *385:16 0
11 *7:8 io_oeb[16] 0.0074485
12 *7:8 io_out[17] 0.000239131
13 *7:8 io_out[18] 0.00321576
14 *7:8 *10:10 0.0068074
15 *7:8 *16:8 0.0405109
16 *7:8 *83:17 0.0356053
17 *7:11 *419:la_data_in[39] 8.62332e-05
18 *7:11 *207:10 0
*RES
1 io_in[15] *7:7 12.465 
2 *7:7 *7:8 455.13 
3 *7:8 *7:10 4.5 
4 *7:10 *7:11 352.53 
5 *7:11 *419:io_in[15] 26.91 
*END

*D_NET *8 0.257793
*CONN
*P io_in[16] I
*I *419:io_in[16] I *D tiny_user_project
*CAP
1 io_in[16] 0.000247817
2 *419:io_in[16] 0.00132835
3 *8:19 0.0109956
4 *8:18 0.00966725
5 *8:16 0.0391949
6 *8:15 0.0391949
7 *8:13 0.0512529
8 *8:11 0.0515007
9 *419:io_in[16] *419:la_data_in[20] 0.000243682
10 *8:16 *419:io_in[36] 0
11 *8:19 *116:11 0.0540267
12 *8:19 *228:12 0.000140816
13 *8:19 *315:10 0
*RES
1 io_in[16] *8:11 2.655 
2 *8:11 *8:13 391.77 
3 *8:13 *8:15 4.5 
4 *8:15 *8:16 244.53 
5 *8:16 *8:18 4.5 
6 *8:18 *8:19 138.87 
7 *8:19 *419:io_in[16] 13.725 
*END

*D_NET *9 0.141273
*CONN
*P io_in[17] I
*I *419:io_in[17] I *D tiny_user_project
*CAP
1 io_in[17] 0.001352
2 *419:io_in[17] 0.000432672
3 *9:14 0.0190509
4 *9:13 0.0186182
5 *9:11 0.0486844
6 *9:10 0.0500364
7 *419:io_in[17] *419:la_data_in[10] 0.000285191
8 *9:10 *83:17 0.000254726
9 *9:11 *278:13 0
10 *9:14 *419:la_data_in[10] 0.00255839
*RES
1 io_in[17] *9:10 19.935 
2 *9:10 *9:11 370.53 
3 *9:11 *9:13 4.5 
4 *9:13 *9:14 144.54 
5 *9:14 *419:io_in[17] 3.735 
*END

*D_NET *10 0.156869
*CONN
*P io_in[18] I
*I *419:io_in[18] I *D tiny_user_project
*CAP
1 io_in[18] 0.00183902
2 *419:io_in[18] 0.00506628
3 *10:14 0.0113849
4 *10:13 0.00631863
5 *10:11 0.0424797
6 *10:10 0.0443187
7 *10:10 io_out[18] 0.00286408
8 *10:14 *78:11 0.0357906
9 *7:8 *10:10 0.0068074
*RES
1 io_in[18] *10:10 34.335 
2 *10:10 *10:11 326.61 
3 *10:11 *10:13 4.5 
4 *10:13 *10:14 92.43 
5 *10:14 *419:io_in[18] 45.36 
*END

*D_NET *11 0.20977
*CONN
*P io_in[19] I
*I *419:io_in[19] I *D tiny_user_project
*CAP
1 io_in[19] 0.000178873
2 *419:io_in[19] 0.00230303
3 *11:19 0.0573314
4 *11:18 0.0550284
5 *11:16 0.0101436
6 *11:15 0.0101436
7 *11:13 0.0106122
8 *11:11 0.0107911
9 *11:19 *67:10 0.0164301
10 *11:19 *117:11 0.0368072
11 *11:19 *382:15 0
*RES
1 io_in[19] *11:11 2.115 
2 *11:11 *11:13 81.27 
3 *11:13 *11:15 4.5 
4 *11:15 *11:16 78.39 
5 *11:16 *11:18 4.5 
6 *11:18 *11:19 495.45 
7 *11:19 *419:io_in[19] 18.675 
*END

*D_NET *12 0.435873
*CONN
*P io_in[1] I
*I *419:io_in[1] I *D tiny_user_project
*CAP
1 io_in[1] 0.000370905
2 *419:io_in[1] 0.00105823
3 *12:19 0.0200476
4 *12:18 0.0189894
5 *12:16 0.06379
6 *12:15 0.06379
7 *12:13 0.00948341
8 *12:11 0.00985431
9 *419:io_in[1] *419:wbs_adr_i[24] 3.30211e-05
10 *419:io_in[1] *112:31 0
11 *12:16 *37:17 0
12 *12:16 *112:69 0.0281509
13 *12:16 *233:19 0
14 *12:19 *36:11 0.13059
15 *12:19 *38:11 0
16 *12:19 *45:16 0.000318001
17 *12:19 *60:11 0.00928986
18 *12:19 *112:41 0.00483143
19 *12:19 *112:56 0.00513673
20 *12:19 *112:65 0.000689101
21 *12:19 *139:16 0.0308968
22 *12:19 *224:16 0.000249196
23 *12:19 *282:14 0.0247576
24 *12:19 *317:12 0.0124421
25 *12:19 *378:14 0
26 *419:io_in[15] *12:19 0.00110425
*RES
1 io_in[1] *12:11 3.195 
2 *12:11 *12:13 73.17 
3 *12:13 *12:15 4.5 
4 *12:15 *12:16 524.25 
5 *12:16 *12:18 4.5 
6 *12:18 *12:19 486.63 
7 *12:19 *419:io_in[1] 19.8 
*END

*D_NET *13 0.130379
*CONN
*P io_in[20] I
*I *419:io_in[20] I *D tiny_user_project
*CAP
1 io_in[20] 0.00145152
2 *419:io_in[20] 7.94064e-05
3 *13:11 0.0471207
4 *13:10 0.0470413
5 *13:8 0.016617
6 *13:7 0.0180685
7 *13:11 *231:16 0
*RES
1 io_in[20] *13:7 15.525 
2 *13:7 *13:8 128.97 
3 *13:8 *13:10 4.5 
4 *13:10 *13:11 354.87 
5 *13:11 *419:io_in[20] 9.63 
*END

*D_NET *14 0.295986
*CONN
*P io_in[21] I
*I *419:io_in[21] I *D tiny_user_project
*CAP
1 io_in[21] 0.00173254
2 *419:io_in[21] 0.00077296
3 *14:14 0.00473511
4 *14:13 0.00396215
5 *14:11 0.076276
6 *14:10 0.0780085
7 *419:io_in[21] *419:la_data_in[36] 7.00886e-05
8 *14:10 *54:17 0.000962916
9 *14:14 *419:la_data_in[58] 0.00110425
10 *14:14 *18:19 0.000883087
11 *14:14 *24:19 0.00192011
12 *14:14 *83:11 0.024385
13 *14:14 *101:11 0.058607
14 *14:14 *272:25 0.00345035
15 *14:14 *370:16 0.0185034
16 *14:14 *370:22 0.00312729
17 *14:14 *370:24 0.00588231
18 *14:14 *401:11 0.0116024
*RES
1 io_in[21] *14:10 25.335 
2 *14:10 *14:11 579.69 
3 *14:11 *14:13 4.5 
4 *14:13 *14:14 221.49 
5 *14:14 *419:io_in[21] 18.3365 
*END

*D_NET *15 0.199418
*CONN
*P io_in[22] I
*I *419:io_in[22] I *D tiny_user_project
*CAP
1 io_in[22] 0.00485406
2 *419:io_in[22] 0.00266197
3 *15:12 0.0523667
4 *15:11 0.0497047
5 *15:9 0.0401595
6 *15:7 0.0450135
7 *419:io_in[22] *419:wbs_adr_i[29] 0
8 *419:io_in[22] *419:wbs_dat_i[8] 0
9 *419:io_in[22] *60:8 0.00241987
10 *419:io_in[22] *108:57 0.000457338
11 *419:io_in[22] *145:16 0.00102621
12 *419:io_in[22] *384:10 0.00075451
13 *15:12 *289:14 0
14 *15:12 *337:16 0
*RES
1 io_in[22] *15:7 37.305 
2 *15:7 *15:9 309.24 
3 *15:9 *15:11 4.5 
4 *15:11 *15:12 386.19 
5 *15:12 *419:io_in[22] 36.72 
*END

*D_NET *16 0.414058
*CONN
*P io_in[23] I
*I *419:io_in[23] I *D tiny_user_project
*CAP
1 io_in[23] 0.00105188
2 *419:io_in[23] 0.00268595
3 *16:11 0.0471222
4 *16:10 0.0444363
5 *16:8 0.0274037
6 *16:7 0.0284556
7 *419:io_in[23] *256:19 0
8 *16:8 io_out[18] 0.000239735
9 *16:8 *54:17 0.192551
10 *16:11 io_out[18] 1.47961e-05
11 *16:11 *53:8 0.0295863
12 *7:8 *16:8 0.0405109
*RES
1 io_in[23] *16:7 12.645 
2 *16:7 *16:8 497.07 
3 *16:8 *16:10 4.5 
4 *16:10 *16:11 374.13 
5 *16:11 *419:io_in[23] 32.805 
*END

*D_NET *17 0.391776
*CONN
*P io_in[24] I
*I *419:io_in[24] I *D tiny_user_project
*CAP
1 io_in[24] 0.00224804
2 *419:io_in[24] 0.000696034
3 *17:11 0.0389339
4 *17:10 0.0382379
5 *17:8 0.0747073
6 *17:7 0.0769553
7 *419:io_in[24] *419:wbs_dat_i[2] 5.25872e-05
8 *419:io_in[24] *52:16 2.00305e-06
9 *17:8 *314:13 0
10 *17:11 *18:19 0
11 *17:11 *24:19 0.048089
12 *17:11 *26:11 0
13 *17:11 *42:11 0.0171044
14 *17:11 *47:11 0.0204106
15 *17:11 *111:18 0.0743389
*RES
1 io_in[24] *17:7 21.465 
2 *17:7 *17:8 574.11 
3 *17:8 *17:10 4.5 
4 *17:10 *17:11 537.93 
5 *17:11 *419:io_in[24] 17.6165 
*END

*D_NET *18 0.281625
*CONN
*P io_in[25] I
*I *419:io_in[25] I *D tiny_user_project
*CAP
1 io_in[25] 0.000125876
2 *419:io_in[25] 0.000938949
3 *18:19 0.0207464
4 *18:18 0.0198074
5 *18:16 0.0664323
6 *18:15 0.0664323
7 *18:13 0.0295919
8 *18:11 0.0297178
9 *18:19 *24:19 0.00481494
10 *18:19 *52:17 0
11 *18:19 *101:11 0.00421055
12 *18:19 *370:16 0.0379234
13 *14:14 *18:19 0.000883087
14 *17:11 *18:19 0
*RES
1 io_in[25] *18:11 1.395 
2 *18:11 *18:13 187.11 
3 *18:13 *18:15 4.5 
4 *18:15 *18:16 506.61 
5 *18:16 *18:18 4.5 
6 *18:18 *18:19 225.27 
7 *18:19 *419:io_in[25] 18.8765 
*END

*D_NET *19 0.17076
*CONN
*P io_in[26] I
*I *419:io_in[26] I *D tiny_user_project
*CAP
1 io_in[26] 0.00192467
2 *419:io_in[26] 0.000345546
3 *19:11 0.0489888
4 *19:10 0.0486433
5 *19:8 0.0344521
6 *19:7 0.0363768
7 *419:io_in[26] *419:wbs_stb_i 2.85162e-05
*RES
1 io_in[26] *19:7 18.765 
2 *19:7 *19:8 264.87 
3 *19:8 *19:10 4.5 
4 *19:10 *19:11 370.71 
5 *19:11 *419:io_in[26] 11.88 
*END

*D_NET *20 0.161505
*CONN
*P io_in[27] I
*I *419:io_in[27] I *D tiny_user_project
*CAP
1 io_in[27] 0.00035683
2 *419:io_in[27] 0.000150089
3 *20:19 0.0253367
4 *20:18 0.0251866
5 *20:16 0.0295055
6 *20:15 0.0295055
7 *20:13 0.0244248
8 *20:11 0.0247816
9 *20:19 *359:16 0
10 *419:io_in[0] *419:io_in[27] 0
11 *419:io_in[0] *20:19 0.00225793
*RES
1 io_in[27] *20:11 3.015 
2 *20:11 *20:13 189.81 
3 *20:13 *20:15 4.5 
4 *20:15 *20:16 224.19 
5 *20:16 *20:18 4.5 
6 *20:18 *20:19 195.21 
7 *20:19 *419:io_in[27] 10.17 
*END

*D_NET *21 0.138086
*CONN
*P io_in[28] I
*I *419:io_in[28] I *D tiny_user_project
*CAP
1 io_in[28] 0.00318407
2 *419:io_in[28] 0.000214255
3 *21:19 0.0478978
4 *21:18 0.0476836
5 *21:16 0.017961
6 *21:15 0.021145
7 *419:io_in[28] *419:wbs_dat_i[10] 0
*RES
1 io_in[28] *21:15 29.385 
2 *21:15 *21:16 137.79 
3 *21:16 *21:18 4.5 
4 *21:18 *21:19 362.61 
5 *21:19 *419:io_in[28] 10.71 
*END

*D_NET *22 0.129477
*CONN
*P io_in[29] I
*I *419:io_in[29] I *D tiny_user_project
*CAP
1 io_in[29] 0.0034486
2 *419:io_in[29] 0.000291288
3 *22:19 0.0476449
4 *22:18 0.0473536
5 *22:16 0.0134179
6 *22:15 0.0168665
7 *419:io_in[29] *419:la_oenb[28] 0.000154731
8 *22:19 *419:la_oenb[28] 0.000299187
*RES
1 io_in[29] *22:15 31.545 
2 *22:15 *22:16 102.69 
3 *22:16 *22:18 4.5 
4 *22:18 *22:19 359.91 
5 *22:19 *419:io_in[29] 11.79 
*END

*D_NET *23 0.422474
*CONN
*P io_in[2] I
*I *419:io_in[2] I *D tiny_user_project
*CAP
1 io_in[2] 0.000509679
2 *419:io_in[2] 0.000394865
3 *23:11 0.0299509
4 *23:10 0.029556
5 *23:8 0.0261045
6 *23:7 0.0266142
7 *419:io_in[2] *142:16 0.00065701
8 *419:io_in[2] *225:26 0.00147975
9 *419:io_in[2] *256:19 0.000434188
10 *23:8 *32:8 0.150507
11 *23:8 *39:10 0.00138345
12 *23:8 *40:10 0.0270087
13 *23:8 *99:14 0.00755167
14 *23:11 *32:11 0
15 *23:11 *112:66 0.120322
*RES
1 io_in[2] *23:7 8.505 
2 *23:7 *23:8 448.11 
3 *23:8 *23:10 4.5 
4 *23:10 *23:11 371.61 
5 *23:11 *419:io_in[2] 15.615 
*END

*D_NET *24 0.284143
*CONN
*P io_in[30] I
*I *419:io_in[30] I *D tiny_user_project
*CAP
1 io_in[30] 0.000113196
2 *419:io_in[30] 0.00073531
3 *24:19 0.00691915
4 *24:18 0.00618384
5 *24:16 0.021806
6 *24:15 0.021806
7 *24:13 0.025078
8 *24:11 0.0251912
9 *419:io_in[30] *79:10 1.13744e-05
10 *419:io_in[30] *253:13 0
11 *24:19 *42:11 0.00306994
12 *24:19 *47:11 0.020426
13 *24:19 *83:11 0.0201232
14 *24:19 *101:11 0.0778562
15 *14:14 *24:19 0.00192011
16 *17:11 *24:19 0.048089
17 *18:19 *24:19 0.00481494
*RES
1 io_in[30] *24:11 1.395 
2 *24:11 *24:13 192.51 
3 *24:13 *24:15 4.5 
4 *24:15 *24:16 165.51 
5 *24:16 *24:18 4.5 
6 *24:18 *24:19 326.79 
7 *24:19 *419:io_in[30] 17.9765 
*END

*D_NET *25 0.108964
*CONN
*P io_in[31] I
*I *419:io_in[31] I *D tiny_user_project
*CAP
1 io_in[31] 0.00418973
2 *419:io_in[31] 0.000150089
3 *25:11 0.0453813
4 *25:10 0.049421
5 *419:io_in[31] *419:la_oenb[39] 0
6 *25:11 *275:18 0.00982172
*RES
1 io_in[31] *25:10 40.995 
2 *25:10 *25:11 361.35 
3 *25:11 *419:io_in[31] 10.17 
*END

*D_NET *26 0.215236
*CONN
*P io_in[32] I
*I *419:io_in[32] I *D tiny_user_project
*CAP
1 io_in[32] 0.00453854
2 *419:io_in[32] 0
3 *26:23 0.00118751
4 *26:11 0.0543459
5 *26:10 0.057697
6 *26:11 *419:la_data_in[61] 0
7 *26:11 *47:17 0.030675
8 *26:11 *58:11 0.00128513
9 *26:11 *62:7 0
10 *26:11 *95:11 0.000245074
11 *26:11 *96:11 0.0216595
12 *26:11 *98:11 0.00328727
13 *26:11 *111:18 0
14 *26:11 *306:16 0.0202931
15 *26:23 *419:wbs_sel_i[2] 0.000107706
16 *26:23 *42:11 0.0099496
17 *26:23 *83:11 0.00996501
18 *17:11 *26:11 0
*RES
1 io_in[32] *26:10 43.335 
2 *26:10 *26:11 528.03 
3 *26:11 *26:23 49.6565 
4 *26:23 *419:io_in[32] 4.5 
*END

*D_NET *27 0.120324
*CONN
*P io_in[33] I
*I *419:io_in[33] I *D tiny_user_project
*CAP
1 io_in[33] 0.00321133
2 *419:io_in[33] 0.000150089
3 *27:19 0.0483922
4 *27:18 0.0482421
5 *27:16 0.00855861
6 *27:15 0.0117699
7 *27:16 wbs_ack_o 0
*RES
1 io_in[33] *27:15 29.385 
2 *27:15 *27:16 64.89 
3 *27:16 *27:18 4.5 
4 *27:18 *27:19 362.61 
5 *27:19 *419:io_in[33] 10.17 
*END

*D_NET *28 0.272405
*CONN
*P io_in[34] I
*I *419:io_in[34] I *D tiny_user_project
*CAP
1 io_in[34] 0.00380628
2 *419:io_in[34] 0.000230761
3 *28:19 0.0315224
4 *28:18 0.0312917
5 *28:16 0.0384263
6 *28:15 0.0422326
7 *28:16 *417:13 0
8 *28:19 *60:17 0.117905
9 *28:19 *134:29 0.00699054
*RES
1 io_in[34] *28:15 34.245 
2 *28:15 *28:16 294.39 
3 *28:16 *28:18 4.5 
4 *28:18 *28:19 357.21 
5 *28:19 *419:io_in[34] 10.17 
*END

*D_NET *29 0.439336
*CONN
*P io_in[35] I
*I *419:io_in[35] I *D tiny_user_project
*CAP
1 io_in[35] 0.00483843
2 *419:io_in[35] 0.00124493
3 *29:19 0.0145446
4 *29:18 0.0132996
5 *29:16 0.0527533
6 *29:15 0.0575918
7 *419:io_in[35] *419:io_in[7] 0.000634909
8 *419:io_in[35] *108:32 0.000106092
9 *29:16 *349:13 0
10 *29:19 *38:11 0.0710928
11 *29:19 *64:11 0.190819
12 *29:19 *77:11 0.00017696
13 *29:19 *314:16 0.0251463
14 *29:19 *316:14 0
15 *29:19 *357:14 0.00708706
*RES
1 io_in[35] *29:15 41.805 
2 *29:15 *29:16 404.19 
3 *29:16 *29:18 4.5 
4 *29:18 *29:19 520.11 
5 *29:19 *419:io_in[35] 30.24 
*END

*D_NET *30 0.338417
*CONN
*P io_in[36] I
*I *419:io_in[36] I *D tiny_user_project
*CAP
1 io_in[36] 0.00179421
2 *419:io_in[36] 0.00245495
3 *30:12 0.0469651
4 *30:11 0.0445102
5 *30:9 0.0773501
6 *30:7 0.0791443
7 *419:io_in[36] *419:wbs_dat_i[0] 1.96655e-05
8 *30:12 *178:19 0.0861783
9 *8:16 *419:io_in[36] 0
*RES
1 io_in[36] *30:7 13.185 
2 *30:7 *30:9 580.68 
3 *30:9 *30:11 4.5 
4 *30:11 *30:12 440.19 
5 *30:12 *419:io_in[36] 20.835 
*END

*D_NET *31 0.378704
*CONN
*P io_in[37] I
*I *419:io_in[37] I *D tiny_user_project
*CAP
1 io_in[37] 0.000323383
2 *419:io_in[37] 0.00269977
3 *31:16 0.0445897
4 *31:15 0.04189
5 *31:13 0.0793658
6 *31:11 0.0796891
7 *419:io_in[37] *419:la_data_in[23] 0.000542427
8 *419:io_in[37] *308:7 0
9 *31:13 *124:24 0
10 *31:13 *125:16 0
11 *31:16 *89:8 0.0529332
12 *31:16 *161:11 0.000256167
13 *31:16 *240:16 0.0709176
14 *31:16 *355:19 0.00549663
*RES
1 io_in[37] *31:11 3.015 